LTspice 24.0.9 for Windows
Circuit: * C:\Users\nicla\Documents\GitHub\esd5_project\rf_front_end\bandpass_filter\bandpass_scaled.asc
Start Time: Thu Nov 21 15:32:45 2024
solver = Normal
Maximum thread count: 16



.OP point found by inspection.
.step tol=-0.16



.step tol=-0.12



.step tol=-0.08



.step tol=-0.04



.step tol=1.38777878078145e-17



.step tol=0.04



.step tol=0.08



.step tol=0.12
tnom = 27
temp = 27
method = modified trap
.step tol=0.16
Total elapsed time: 0.250 seconds.

