LTspice 24.0.9 for Windows
Circuit: * C:\Users\nicla\Documents\GitHub\esd5_project\rf_front_end\bandpass_filter\bandpass_scaled.asc
Start Time: Mon Oct  7 09:13:12 2024
solver = Normal
Maximum thread count: 16
tnom = 27
temp = 27
method = modified trap
.OP point found by inspection.
Total elapsed time: 0.121 seconds.

