LTspice 24.0.9 for Windows
Circuit: * C:\Users\nicla\Documents\GitHub\esd5_project\rf_front_end\bandpass_filter\Draft1.asc
Start Time: Thu Oct 10 10:47:06 2024
Warning: Multiple definitions of model "2scr375p" Type: BJT
Warning: Multiple definitions of model "bc857b" Type: BJT
Warning: Multiple definitions of model "bc847c" Type: BJT
Warning: Multiple definitions of model "bc847b" Type: BJT
solver = Normal
Maximum thread count: 16
tnom = 27
temp = 27
method = modified trap
Direct Newton iteration for .op point succeeded.
Total elapsed time: 0.114 seconds.

